Version 4
SHEET 1 1920 1224
WIRE -384 -128 -384 -160
WIRE -272 -128 -272 -160
WIRE -160 -128 -160 -160
WIRE -48 -128 -48 -160
WIRE 48 -128 48 -160
WIRE 160 -128 160 -160
WIRE 288 -128 288 -160
WIRE 416 -128 416 -160
WIRE -384 16 -384 -48
WIRE -272 16 -272 -48
WIRE -272 16 -384 16
WIRE -160 16 -160 -48
WIRE -160 16 -272 16
WIRE -48 16 -48 -48
WIRE -48 16 -160 16
WIRE 0 16 -48 16
WIRE 48 16 48 -48
WIRE 48 16 0 16
WIRE 160 16 160 -48
WIRE 160 16 48 16
WIRE 288 16 288 -48
WIRE 288 16 160 16
WIRE 416 16 416 -48
WIRE 416 16 288 16
WIRE 0 64 0 16
WIRE 352 256 352 160
WIRE 0 272 0 208
WIRE 352 400 352 336
WIRE 0 416 0 352
WIRE -400 624 -400 560
WIRE -256 624 -256 560
WIRE -128 624 -128 560
WIRE 0 624 0 560
WIRE 128 624 128 560
WIRE 256 624 256 560
WIRE 384 624 384 560
WIRE 528 624 528 560
WIRE -400 816 -400 704
WIRE -256 816 -256 704
WIRE -256 816 -400 816
WIRE -128 816 -128 704
WIRE -128 816 -256 816
WIRE 0 816 0 704
WIRE 0 816 -128 816
WIRE 64 816 0 816
WIRE 128 816 128 704
WIRE 128 816 64 816
WIRE 256 816 256 704
WIRE 256 816 128 816
WIRE 384 816 384 704
WIRE 384 816 256 816
WIRE 528 816 528 704
WIRE 528 816 384 816
WIRE 64 864 64 816
FLAG 0 416 0
FLAG 0 208 VDD
IOPIN 0 208 In
FLAG 0 64 0
FLAG 416 -160 A1
IOPIN 416 -160 In
FLAG 288 -160 A2
IOPIN 288 -160 In
FLAG 160 -160 A3
IOPIN 160 -160 In
FLAG 48 -160 A4
IOPIN 48 -160 In
FLAG -48 -160 A5
IOPIN -48 -160 In
FLAG -160 -160 A6
IOPIN -160 -160 In
FLAG -272 -160 A7
IOPIN -272 -160 In
FLAG -384 -160 A8
IOPIN -384 -160 In
FLAG 64 864 0
FLAG 528 560 B1
IOPIN 528 560 In
FLAG 384 560 B2
IOPIN 384 560 In
FLAG 256 560 B3
IOPIN 256 560 In
FLAG 128 560 B4
IOPIN 128 560 In
FLAG 0 560 B5
IOPIN 0 560 In
FLAG -128 560 B6
IOPIN -128 560 In
FLAG -256 560 B7
IOPIN -256 560 In
FLAG -400 560 B8
IOPIN -400 560 In
FLAG 352 400 0
FLAG 352 160 C
IOPIN 352 160 In
FLAG 1120 48 A1
IOPIN 1120 48 In
FLAG 1120 80 A2
IOPIN 1120 80 In
FLAG 1120 112 A3
IOPIN 1120 112 In
FLAG 1120 144 A4
IOPIN 1120 144 In
FLAG 1120 176 A5
IOPIN 1120 176 In
FLAG 1120 208 A6
IOPIN 1120 208 In
FLAG 1120 240 A7
IOPIN 1120 240 In
FLAG 1120 272 A8
IOPIN 1120 272 In
FLAG 1120 304 B1
IOPIN 1120 304 In
FLAG 1120 336 B2
IOPIN 1120 336 In
FLAG 1120 368 B3
IOPIN 1120 368 In
FLAG 1120 400 B4
IOPIN 1120 400 In
FLAG 1120 432 B5
IOPIN 1120 432 In
FLAG 1120 464 B6
IOPIN 1120 464 In
FLAG 1120 496 B7
IOPIN 1120 496 In
FLAG 1120 528 B8
IOPIN 1120 528 In
FLAG 1120 560 C
IOPIN 1120 560 In
FLAG 1120 592 VDD
IOPIN 1120 592 In
FLAG 1264 192 Cout
IOPIN 1264 192 Out
FLAG 1264 224 S1
IOPIN 1264 224 Out
FLAG 1264 256 S2
IOPIN 1264 256 Out
FLAG 1264 288 S3
IOPIN 1264 288 Out
FLAG 1264 320 S4
IOPIN 1264 320 Out
FLAG 1264 384 S6
IOPIN 1264 384 Out
FLAG 1264 416 S7
IOPIN 1264 416 Out
FLAG 1264 448 S8
IOPIN 1264 448 Out
FLAG 1264 352 S5
IOPIN 1264 352 Out
SYMBOL voltage 0 256 R0
WINDOW 123 0 0 Left 0
WINDOW 39 0 0 Left 0
SYMATTR InstName V1
SYMATTR Value 1
SYMBOL voltage -384 -144 R0
WINDOW 3 -414 33 Left 2
WINDOW 123 0 0 Left 0
WINDOW 39 0 0 Left 0
SYMATTR Value PULSE(0 1 10n 1p 1p 10n 20n 10)
SYMATTR InstName V2
SYMBOL voltage -272 -144 R0
WINDOW 3 -509 -29 Left 2
WINDOW 123 0 0 Left 0
WINDOW 39 0 0 Left 0
SYMATTR Value PULSE(0 1 5n 1p 1p 5n 10n 10)
SYMATTR InstName V3
SYMBOL voltage -160 -144 R0
WINDOW 3 -646 210 Left 2
WINDOW 123 0 0 Left 0
WINDOW 39 0 0 Left 0
SYMATTR Value PULSE(0 1 10n 1p 1p 10n 20n 10)
SYMATTR InstName V4
SYMBOL voltage -48 -144 R0
WINDOW 3 -740 100 Left 2
WINDOW 123 0 0 Left 0
WINDOW 39 0 0 Left 0
SYMATTR Value PULSE(0 1 5n 1p 1p 5n 10n 10)
SYMATTR InstName V5
SYMBOL voltage 48 -144 R0
WINDOW 3 -838 148 Left 2
WINDOW 123 0 0 Left 0
WINDOW 39 0 0 Left 0
SYMATTR Value PULSE(0 1 10n 1p 1p 10n 20n 10)
SYMATTR InstName V6
SYMBOL voltage 160 -144 R0
WINDOW 3 -142 -97 Left 2
WINDOW 123 0 0 Left 0
WINDOW 39 0 0 Left 0
SYMATTR Value PULSE(0 1 5n 1p 1p 5n 10n 10)
SYMATTR InstName V7
SYMBOL voltage 288 -144 R0
WINDOW 3 -1085 -72 Left 2
WINDOW 123 0 0 Left 0
WINDOW 39 0 0 Left 0
SYMATTR Value PULSE(0 1 10n 1p 1p 10n 20n 10)
SYMATTR InstName V8
SYMBOL voltage 416 -144 R0
WINDOW 123 0 0 Left 0
WINDOW 39 0 0 Left 0
WINDOW 3 -1212 265 Left 2
SYMATTR InstName V9
SYMATTR Value PULSE(0 1 5n 1p 1p 5n 10n 10)
SYMBOL voltage -400 608 R0
WINDOW 3 -384 -113 Left 2
WINDOW 123 0 0 Left 0
WINDOW 39 0 0 Left 0
SYMATTR Value PULSE(0 1 20n 1p 1p 20n 40n 10)
SYMATTR InstName V10
SYMBOL voltage -256 608 R0
WINDOW 3 -535 59 Left 2
WINDOW 123 0 0 Left 0
WINDOW 39 0 0 Left 0
SYMATTR Value PULSE(0 1 10n 1p 1p 10n 20n 10)
SYMATTR InstName V11
SYMBOL voltage -128 608 R0
WINDOW 3 -658 -158 Left 2
WINDOW 123 0 0 Left 0
WINDOW 39 0 0 Left 0
SYMATTR Value PULSE(0 1 20n 1p 1p 20n 40n 10)
SYMATTR InstName V12
SYMBOL voltage 0 608 R0
WINDOW 3 -785 15 Left 2
WINDOW 123 0 0 Left 0
WINDOW 39 0 0 Left 0
SYMATTR Value PULSE(0 1 10n 1p 1p 10n 20n 10)
SYMATTR InstName V13
SYMBOL voltage 128 608 R0
WINDOW 3 -910 -69 Left 2
WINDOW 123 0 0 Left 0
WINDOW 39 0 0 Left 0
SYMATTR Value PULSE(0 1 20n 1p 1p 20n 40n 10)
SYMATTR InstName V14
SYMBOL voltage 256 608 R0
WINDOW 3 -1041 103 Left 2
WINDOW 123 0 0 Left 0
WINDOW 39 0 0 Left 0
SYMATTR Value PULSE(0 1 10n 1p 1p 10n 20n 10)
SYMATTR InstName V15
SYMBOL voltage 384 608 R0
WINDOW 3 -1165 155 Left 2
WINDOW 123 0 0 Left 0
WINDOW 39 0 0 Left 0
SYMATTR Value PULSE(0 1 20n 1p 1p 20n 40n 10)
SYMATTR InstName V16
SYMBOL voltage 528 608 R0
WINDOW 3 -1315 -27 Left 2
WINDOW 123 0 0 Left 0
WINDOW 39 0 0 Left 0
SYMATTR Value PULSE(0 1 10n 1p 1p 10n 20n 10)
SYMATTR InstName V17
SYMBOL voltage 352 240 R0
WINDOW 123 0 0 Left 0
WINDOW 39 0 0 Left 0
SYMATTR InstName V18
SYMATTR Value 1
SYMBOL 8BIT_KOGGE_STONE_FINAL 1184 320 R0
SYMATTR InstName 8_bit_kogge_stone
TEXT -56 960 Left 2 !.INCLUDE 45nm_bulk.pm
TEXT -728 976 Left 2 !.tran 100n
